32
-874.9844379833111
Au -0.0 -0.00014251 -0.12570727
Au -1e-07 1.33883649 -4.36847213
Au 1e-07 -1.33874798 -4.36854697
Au -4.3e-07 2.16536724 -1.86890628
Au 4.3e-07 -2.16547621 -1.86909493
Au 1.37411428 -5.25e-06 -2.57022275
Au -1.37411428 -5.46e-06 -2.57022275
Au -2.19206101 -1.41658965 -0.50713445
Au -2.19209453 1.41621894 -0.50688186
Au -1.3820999 1.43187292 -0.64996123
Au -0.83074925 -1.03362385 -2.04181092
Au 0.83074925 1.03362385 -2.04181092
Au -3.70053569 1.7371469 -1.87317262
Au -1.57190062 1.15756723 -3.27454149
Au 1.57190062 -1.15756723 -3.27454149
Au -3.0957243 -0.58985938 -0.76036054
Au -3.71501598 1.52234058 0.71376736
Au -0.0014734 0.0 1.33349984
Au 1.29519417 -2.17755351 -0.00095197
Au 1.29519398 2.17755321 -0.00095197
Au 2.76429565 -4e-08 -0.00090454
Au 2.25506591 -1.28936034 2.29137523
Au -2.25614547 -1.28952103 2.29367086
Au -0.00031492 2.58139184 2.31498456
Au -2.25614537 1.28952096 2.29367082
Au -0.00031492 -2.58139184 2.31498456
Au 2.25506602 1.28936041 2.29137528
Au 3.49409418 0.82504068 0.2732279
Au 0.88499044 0.96302652 0.31445822
Au 1.88091976 -1.48191708 0.39905012
Au 2.26885065 3.07568799 1.04921874
Au 2.47965764 -4.04401057 0.31941298
