20
Energy =  -1192.36090837 au
 Au      1.28820020     -3.09496114      9.10069161
 Au     -9.59673890     -6.76096986     -8.08645488
 Au     -8.01270998     -8.38533230      1.92628202
 Au      8.05028379     -1.63325860     -6.45251777
 Au      7.38681221      7.64532417     -4.92538461
 Au      3.74089101     -7.69974528     -3.82229841
 Au     -5.62564236      8.12198060     -7.08323306
 Au      0.39905783     -5.47487496      9.76155596
 Au     -0.46665870      5.65199061      8.08241353
 Au      9.10475741      5.52645887      1.16367940
 Au     -8.01270998     -8.38533230      1.92628202
 Au     -0.46665870      5.65199061      8.08241353
 Au      8.05028379     -1.63325860     -6.45251777
 Au     -5.61047742     10.15393043      4.85911217
 Au     -2.62944360     -4.71056954     -2.23301637
 Au     -5.62564236      8.12198060     -7.08323306
 Au     -4.62137667      0.99284346     11.60408921
 Au      7.38681221      7.64532417     -4.92538461
 Au     -0.40392114     -4.62439080     -2.28674045
 Au      5.66488135     -7.10913013     -3.15573846
